Circuit: * C:\Users\thien\Desktop\Eln\Projet\eln1-project-2020-wild-penguins\Simu_probe.asc

Direct Newton iteration for .op point succeeded.

Date: Thu Apr 02 15:57:53 2020
Total elapsed time: 0.052 seconds.

tnom = 27
temp = 27
method = modified trap
totiter = 2645
traniter = 2642
tranpoints = 1322
accept = 1252
rejected = 70
matrix size = 7
fillins = 0
solver = Normal
Matrix Compiler1:       7 opcodes  0.1/[0.0]/0.0
Matrix Compiler2: 495 bytes object code size  0.1/0.1/[0.1]


