Circuit: * C:\Users\73JN\OneDrive\Documents\ELN\Wild Penguins\eln1-project-2020-wild-penguins\Simul\Simu_analog.asc

Direct Newton iteration for .op point succeeded.
.step index=1
.step index=2
.step index=3
.step index=4
.step index=5

Date: Wed May 06 13:55:40 2020
Total elapsed time: 1.512 seconds.

tnom = 27
temp = 27
method = modified trap
totiter = 16396
traniter = 16380
tranpoints = 7837
accept = 6348
rejected = 1489
matrix size = 14
fillins = 5
solver = Normal
Matrix Compiler1: 850 octet(s) object code size  0.4/0.5/[0.2]
Matrix Compiler2: 1.36 Ko object code size  0.5/0.7/[0.2]


