Circuit: * C:\Users\73JN\OneDrive\Documents\ELN\Wild Penguins\eln1-project-2020-wild-penguins\Simul\Simu_analog.asc

Direct Newton iteration for .op point succeeded.
.step index=1
.step index=2
.step index=3
.step index=4
.step index=5

Date: Wed May 13 13:09:06 2020
Total elapsed time: 6.165 seconds.

tnom = 27
temp = 27
method = modified trap
totiter = 33084
traniter = 33068
tranpoints = 15732
accept = 12855
rejected = 2877
matrix size = 17
fillins = 3
solver = Normal
Matrix Compiler1: 1002 octet(s) object code size  0.3/0.2/[0.1]
Matrix Compiler2:     135 opcodes  0.2/[0.2]/0.3


