Circuit: * C:\Users\jeann\OneDrive\Documents\ELN\Wild Penguins\eln1-project-2020-wild-penguins\Simul\Simu_probe.asc

Direct Newton iteration for .op point succeeded.

Date: Thu Apr 30 10:04:57 2020
Total elapsed time: 0.182 seconds.

tnom = 27
temp = 27
method = modified trap
totiter = 2645
traniter = 2642
tranpoints = 1322
accept = 1252
rejected = 70
matrix size = 7
fillins = 0
solver = Normal
Matrix Compiler1: 106 bytes object code size  0.1/0.1/[0.1]
Matrix Compiler2: 495 bytes object code size  0.1/0.2/[0.1]


